<?xml version="1.0" encoding="UTF-8"?>

<routes>
  <vType id="type1" accel="0.8" decel="4.5" sigma="0.5" length="5.0" maxSpeed="70.0"/>
  <route id="wholeHighway" color="1,1,0" edges="7b 8b 9b 10b 11b"/>
  <vehicle id="0" type="type1" route="wholeHighway" depart="12.0" departPos="95.0" departSpeed="26.69926386381334" departLane="1"/>
  <vehicle id="1" type="type1" route="wholeHighway" depart="24.0" departPos="95.0" departSpeed="26.024706484428755" departLane="1"/>
  <vehicle id="2" type="type1" route="wholeHighway" depart="36.0" departPos="95.0" departSpeed="26.80966367527397" departLane="1"/>
  <vehicle id="3" type="type1" route="wholeHighway" depart="48.0" departPos="95.0" departSpeed="25.807991032716888" departLane="1"/>
  <vehicle id="4" type="type1" route="wholeHighway" depart="60.0" departPos="95.0" departSpeed="34.71782343358753" departLane="0"/>
  <vehicle id="5" type="type1" route="wholeHighway" depart="60.0" departPos="95.0" departSpeed="25.48634338769321" departLane="1"/>
  <vehicle id="6" type="type1" route="wholeHighway" depart="90.0" departPos="95.0" departSpeed="32.95130973906923" departLane="0"/>
  <vehicle id="7" type="type1" route="wholeHighway" depart="120.0" departPos="95.0" departSpeed="33.2741364495248" departLane="0"/>
  <vehicle id="8" type="type1" route="wholeHighway" depart="120.0" departPos="95.0" departSpeed="34.33721375662311" departLane="1"/>
  <vehicle id="9" type="type1" route="wholeHighway" depart="140.0" departPos="95.0" departSpeed="32.48494493291699" departLane="0"/>
  <vehicle id="10" type="type1" route="wholeHighway" depart="140.0" departPos="95.0" departSpeed="28.791413249269215" departLane="1"/>
  <vehicle id="11" type="type1" route="wholeHighway" depart="160.0" departPos="95.0" departSpeed="33.91790586576628" departLane="0"/>
  <vehicle id="12" type="type1" route="wholeHighway" depart="160.0" departPos="95.0" departSpeed="28.95589275747961" departLane="1"/>
  <vehicle id="13" type="type1" route="wholeHighway" depart="180.0" departPos="95.0" departSpeed="33.541621455990814" departLane="0"/>
  <vehicle id="14" type="type1" route="wholeHighway" depart="180.0" departPos="95.0" departSpeed="28.0684250239866" departLane="1"/>
  <vehicle id="15" type="type1" route="wholeHighway" depart="240.0" departPos="95.0" departSpeed="28.122685395603977" departLane="1"/>
  <vehicle id="16" type="type1" route="wholeHighway" depart="300.0" departPos="95.0" departSpeed="29.992068997321955" departLane="1"/>
  <vehicle id="17" type="type1" route="wholeHighway" depart="320.0" departPos="95.0" departSpeed="24.07039465907839" departLane="1"/>
  <vehicle id="18" type="type1" route="wholeHighway" depart="330.0" departPos="95.0" departSpeed="32.9147848202136" departLane="0"/>
  <vehicle id="19" type="type1" route="wholeHighway" depart="340.0" departPos="95.0" departSpeed="23.717626705126257" departLane="1"/>
  <vehicle id="20" type="type1" route="wholeHighway" depart="360.0" departPos="95.0" departSpeed="32.58749525380567" departLane="0"/>
  <vehicle id="21" type="type1" route="wholeHighway" depart="360.0" departPos="95.0" departSpeed="24.807528852698116" departLane="1"/>
  <vehicle id="22" type="type1" route="wholeHighway" depart="375.0" departPos="95.0" departSpeed="28.896906868134973" departLane="1"/>
  <vehicle id="23" type="type1" route="wholeHighway" depart="390.0" departPos="95.0" departSpeed="28.98670476720815" departLane="1"/>
  <vehicle id="24" type="type1" route="wholeHighway" depart="405.0" departPos="95.0" departSpeed="29.240178290077544" departLane="1"/>
  <vehicle id="25" type="type1" route="wholeHighway" depart="420.0" departPos="95.0" departSpeed="34.169892010555664" departLane="0"/>
  <vehicle id="26" type="type1" route="wholeHighway" depart="420.0" departPos="95.0" departSpeed="27.490586798279487" departLane="1"/>
  <vehicle id="27" type="type1" route="wholeHighway" depart="435.0" departPos="95.0" departSpeed="32.210090780827066" departLane="1"/>
  <vehicle id="28" type="type1" route="wholeHighway" depart="450.0" departPos="95.0" departSpeed="32.442485234778566" departLane="1"/>
  <vehicle id="29" type="type1" route="wholeHighway" depart="465.0" departPos="95.0" departSpeed="30.64274227574324" departLane="1"/>
  <vehicle id="30" type="type1" route="wholeHighway" depart="480.0" departPos="95.0" departSpeed="31.988569347704136" departLane="1"/>
  <vehicle id="31" type="type1" route="wholeHighway" depart="500.0" departPos="95.0" departSpeed="28.425223627110512" departLane="1"/>
  <vehicle id="32" type="type1" route="wholeHighway" depart="520.0" departPos="95.0" departSpeed="27.57919418945517" departLane="1"/>
  <vehicle id="33" type="type1" route="wholeHighway" depart="540.0" departPos="95.0" departSpeed="36.0" departLane="0"/>
  <vehicle id="34" type="type1" route="wholeHighway" depart="540.0" departPos="95.0" departSpeed="27.313979218632376" departLane="1"/>
  <vehicle id="35" type="type1" route="wholeHighway" depart="552.0" departPos="95.0" departSpeed="28.826244194337978" departLane="1"/>
  <vehicle id="36" type="type1" route="wholeHighway" depart="564.0" departPos="95.0" departSpeed="27.593799214070252" departLane="1"/>
  <vehicle id="37" type="type1" route="wholeHighway" depart="570.0" departPos="95.0" departSpeed="34.48735748477373" departLane="0"/>
  <vehicle id="38" type="type1" route="wholeHighway" depart="576.0" departPos="95.0" departSpeed="28.274079045825612" departLane="1"/>
  <vehicle id="39" type="type1" route="wholeHighway" depart="588.0" departPos="95.0" departSpeed="28.373336356766483" departLane="1"/>
  <vehicle id="40" type="type1" route="wholeHighway" depart="600.0" departPos="95.0" departSpeed="34.6172417145188" departLane="0"/>
  <vehicle id="41" type="type1" route="wholeHighway" depart="600.0" departPos="95.0" departSpeed="27.234909558304768" departLane="1"/>
  <vehicle id="42" type="type1" route="wholeHighway" depart="620.0" departPos="95.0" departSpeed="29.932624292885258" departLane="1"/>
  <vehicle id="43" type="type1" route="wholeHighway" depart="640.0" departPos="95.0" departSpeed="30.00462003933636" departLane="1"/>
  <vehicle id="44" type="type1" route="wholeHighway" depart="660.0" departPos="95.0" departSpeed="29.937100823536404" departLane="1"/>
  <vehicle id="45" type="type1" route="wholeHighway" depart="675.0" departPos="95.0" departSpeed="31.69579846158922" departLane="1"/>
  <vehicle id="46" type="type1" route="wholeHighway" depart="690.0" departPos="95.0" departSpeed="29.912946528011304" departLane="1"/>
  <vehicle id="47" type="type1" route="wholeHighway" depart="705.0" departPos="95.0" departSpeed="29.642262206274243" departLane="1"/>
  <vehicle id="48" type="type1" route="wholeHighway" depart="720.0" departPos="95.0" departSpeed="31.060674768790204" departLane="1"/>
  <vehicle id="49" type="type1" route="wholeHighway" depart="740.0" departPos="95.0" departSpeed="33.11324929513248" departLane="1"/>
  <vehicle id="50" type="type1" route="wholeHighway" depart="760.0" departPos="95.0" departSpeed="32.98835892238495" departLane="1"/>
  <vehicle id="51" type="type1" route="wholeHighway" depart="780.0" departPos="95.0" departSpeed="33.0977949803225" departLane="1"/>
  <vehicle id="52" type="type1" route="wholeHighway" depart="792.0" departPos="95.0" departSpeed="30.113996498436933" departLane="1"/>
  <vehicle id="53" type="type1" route="wholeHighway" depart="804.0" departPos="95.0" departSpeed="29.995396319003444" departLane="1"/>
  <vehicle id="54" type="type1" route="wholeHighway" depart="816.0" departPos="95.0" departSpeed="30.83193637957472" departLane="1"/>
  <vehicle id="55" type="type1" route="wholeHighway" depart="828.0" departPos="95.0" departSpeed="30.746782338523946" departLane="1"/>
  <vehicle id="56" type="type1" route="wholeHighway" depart="840.0" departPos="95.0" departSpeed="31.292683863810193" departLane="1"/>
  <vehicle id="57" type="type1" route="wholeHighway" depart="900.0" departPos="95.0" departSpeed="33.95421832049589" departLane="0"/>
  <vehicle id="58" type="type1" route="wholeHighway" depart="960.0" departPos="95.0" departSpeed="34.53401888291099" departLane="0"/>
  <vehicle id="59" type="type1" route="wholeHighway" depart="960.0" departPos="95.0" departSpeed="24.03909928356153" departLane="1"/>
  <vehicle id="60" type="type1" route="wholeHighway" depart="975.0" departPos="95.0" departSpeed="30.020733104109482" departLane="1"/>
  <vehicle id="61" type="type1" route="wholeHighway" depart="990.0" departPos="95.0" departSpeed="31.182475722389977" departLane="1"/>
  <vehicle id="62" type="type1" route="wholeHighway" depart="1005.0" departPos="95.0" departSpeed="30.711527743959596" departLane="1"/>
  <vehicle id="63" type="type1" route="wholeHighway" depart="1020.0" departPos="95.0" departSpeed="31.44223284776171" departLane="0"/>
  <vehicle id="64" type="type1" route="wholeHighway" depart="1020.0" departPos="95.0" departSpeed="29.19372039059667" departLane="1"/>
  <vehicle id="65" type="type1" route="wholeHighway" depart="1040.0" departPos="95.0" departSpeed="30.188657118474705" departLane="1"/>
  <vehicle id="66" type="type1" route="wholeHighway" depart="1060.0" departPos="95.0" departSpeed="30.6803923347477" departLane="1"/>
  <vehicle id="67" type="type1" route="wholeHighway" depart="1080.0" departPos="95.0" departSpeed="34.908596590296" departLane="0"/>
  <vehicle id="68" type="type1" route="wholeHighway" depart="1080.0" departPos="95.0" departSpeed="30.96253961349009" departLane="1"/>
  <vehicle id="69" type="type1" route="wholeHighway" depart="1110.0" departPos="95.0" departSpeed="28.424908192313538" departLane="1"/>
  <vehicle id="70" type="type1" route="wholeHighway" depart="1140.0" departPos="95.0" departSpeed="29.536407958274644" departLane="1"/>
  <vehicle id="71" type="type1" route="wholeHighway" depart="1150.0" departPos="95.0" departSpeed="33.44952526071223" departLane="1"/>
  <vehicle id="72" type="type1" route="wholeHighway" depart="1160.0" departPos="95.0" departSpeed="33.50434997419619" departLane="1"/>
  <vehicle id="73" type="type1" route="wholeHighway" depart="1170.0" departPos="95.0" departSpeed="32.4743028287093" departLane="1"/>
  <vehicle id="74" type="type1" route="wholeHighway" depart="1180.0" departPos="95.0" departSpeed="34.00233461757495" departLane="1"/>
  <vehicle id="75" type="type1" route="wholeHighway" depart="1190.0" departPos="95.0" departSpeed="34.30123516994014" departLane="1"/>
  <vehicle id="76" type="type1" route="wholeHighway" depart="1200.0" departPos="95.0" departSpeed="35.57440805745594" departLane="0"/>
  <vehicle id="77" type="type1" route="wholeHighway" depart="1200.0" departPos="95.0" departSpeed="33.91586991055889" departLane="1"/>
  <vehicle id="78" type="type1" route="wholeHighway" depart="1212.0" departPos="95.0" departSpeed="32.63483164856567" departLane="1"/>
  <vehicle id="79" type="type1" route="wholeHighway" depart="1224.0" departPos="95.0" departSpeed="32.94340768698521" departLane="1"/>
  <vehicle id="80" type="type1" route="wholeHighway" depart="1236.0" departPos="95.0" departSpeed="30.477308377343025" departLane="1"/>
  <vehicle id="81" type="type1" route="wholeHighway" depart="1248.0" departPos="95.0" departSpeed="31.844645846473487" departLane="1"/>
  <vehicle id="82" type="type1" route="wholeHighway" depart="1260.0" departPos="95.0" departSpeed="32.32075506098496" departLane="1"/>
  <vehicle id="83" type="type1" route="wholeHighway" depart="1280.0" departPos="95.0" departSpeed="36.0" departLane="0"/>
  <vehicle id="84" type="type1" route="wholeHighway" depart="1300.0" departPos="95.0" departSpeed="36.0" departLane="0"/>
  <vehicle id="85" type="type1" route="wholeHighway" depart="1320.0" departPos="95.0" departSpeed="35.80471738441599" departLane="0"/>
  <vehicle id="86" type="type1" route="wholeHighway" depart="1320.0" departPos="95.0" departSpeed="24.217908289590987" departLane="1"/>
  <vehicle id="87" type="type1" route="wholeHighway" depart="1340.0" departPos="95.0" departSpeed="32.56048143685052" departLane="0"/>
  <vehicle id="88" type="type1" route="wholeHighway" depart="1350.0" departPos="95.0" departSpeed="30.485553296485193" departLane="1"/>
  <vehicle id="89" type="type1" route="wholeHighway" depart="1360.0" departPos="95.0" departSpeed="32.0814421565542" departLane="0"/>
  <vehicle id="90" type="type1" route="wholeHighway" depart="1380.0" departPos="95.0" departSpeed="31.460425052575772" departLane="0"/>
  <vehicle id="91" type="type1" route="wholeHighway" depart="1380.0" departPos="95.0" departSpeed="30.759224085892175" departLane="1"/>
  <vehicle id="92" type="type1" route="wholeHighway" depart="1392.0" departPos="95.0" departSpeed="31.263393932312358" departLane="1"/>
  <vehicle id="93" type="type1" route="wholeHighway" depart="1404.0" departPos="95.0" departSpeed="30.41564432973501" departLane="1"/>
  <vehicle id="94" type="type1" route="wholeHighway" depart="1416.0" departPos="95.0" departSpeed="31.24691548012614" departLane="1"/>
  <vehicle id="95" type="type1" route="wholeHighway" depart="1428.0" departPos="95.0" departSpeed="31.171887362513807" departLane="1"/>
  <vehicle id="96" type="type1" route="wholeHighway" depart="1440.0" departPos="95.0" departSpeed="30.83522655203805" departLane="1"/>
  <vehicle id="97" type="type1" route="wholeHighway" depart="1455.0" departPos="95.0" departSpeed="24.899841055817852" departLane="1"/>
  <vehicle id="98" type="type1" route="wholeHighway" depart="1470.0" departPos="95.0" departSpeed="25.62825315412101" departLane="1"/>
  <vehicle id="99" type="type1" route="wholeHighway" depart="1485.0" departPos="95.0" departSpeed="24.874628514520673" departLane="1"/>
  <vehicle id="100" type="type1" route="wholeHighway" depart="1500.0" departPos="95.0" departSpeed="30.437075935888938" departLane="0"/>
  <vehicle id="101" type="type1" route="wholeHighway" depart="1500.0" departPos="95.0" departSpeed="25.6829252215642" departLane="1"/>
  <vehicle id="102" type="type1" route="wholeHighway" depart="1512.0" departPos="95.0" departSpeed="30.565049513791642" departLane="1"/>
  <vehicle id="103" type="type1" route="wholeHighway" depart="1524.0" departPos="95.0" departSpeed="29.968298426253487" departLane="1"/>
  <vehicle id="104" type="type1" route="wholeHighway" depart="1536.0" departPos="95.0" departSpeed="31.83019647511204" departLane="1"/>
  <vehicle id="105" type="type1" route="wholeHighway" depart="1548.0" departPos="95.0" departSpeed="30.982915443961655" departLane="1"/>
  <vehicle id="106" type="type1" route="wholeHighway" depart="1560.0" departPos="95.0" departSpeed="31.553770046537597" departLane="1"/>
  <vehicle id="107" type="type1" route="wholeHighway" depart="1580.0" departPos="95.0" departSpeed="33.42630044561572" departLane="0"/>
  <vehicle id="108" type="type1" route="wholeHighway" depart="1590.0" departPos="95.0" departSpeed="28.128596905198002" departLane="1"/>
  <vehicle id="109" type="type1" route="wholeHighway" depart="1600.0" departPos="95.0" departSpeed="33.31099258197298" departLane="0"/>
  <vehicle id="110" type="type1" route="wholeHighway" depart="1620.0" departPos="95.0" departSpeed="33.86995870464947" departLane="0"/>
  <vehicle id="111" type="type1" route="wholeHighway" depart="1620.0" departPos="95.0" departSpeed="29.186050985471233" departLane="1"/>
  <vehicle id="112" type="type1" route="wholeHighway" depart="1640.0" departPos="95.0" departSpeed="32.85896466505447" departLane="1"/>
  <vehicle id="113" type="type1" route="wholeHighway" depart="1660.0" departPos="95.0" departSpeed="32.88580072512258" departLane="1"/>
  <vehicle id="114" type="type1" route="wholeHighway" depart="1680.0" departPos="95.0" departSpeed="32.22287088889312" departLane="1"/>
  <vehicle id="115" type="type1" route="wholeHighway" depart="1700.0" departPos="95.0" departSpeed="35.76053738481963" departLane="0"/>
  <vehicle id="116" type="type1" route="wholeHighway" depart="1710.0" departPos="95.0" departSpeed="32.06561783799372" departLane="1"/>
  <vehicle id="117" type="type1" route="wholeHighway" depart="1720.0" departPos="95.0" departSpeed="35.42462491830168" departLane="0"/>
  <vehicle id="118" type="type1" route="wholeHighway" depart="1740.0" departPos="95.0" departSpeed="35.98251231078529" departLane="0"/>
  <vehicle id="119" type="type1" route="wholeHighway" depart="1740.0" departPos="95.0" departSpeed="31.679531613096636" departLane="1"/>
  <vehicle id="120" type="type1" route="wholeHighway" depart="1760.0" departPos="95.0" departSpeed="29.11726078419973" departLane="1"/>
  <vehicle id="121" type="type1" route="wholeHighway" depart="1770.0" departPos="95.0" departSpeed="30.38345238972935" departLane="0"/>
  <vehicle id="122" type="type1" route="wholeHighway" depart="1780.0" departPos="95.0" departSpeed="28.44554353503871" departLane="1"/>
  <vehicle id="123" type="type1" route="wholeHighway" depart="1800.0" departPos="95.0" departSpeed="31.97325765540141" departLane="0"/>
  <vehicle id="124" type="type1" route="wholeHighway" depart="1800.0" departPos="95.0" departSpeed="28.907017437315933" departLane="1"/>
  <vehicle id="125" type="type1" route="wholeHighway" depart="1810.0" departPos="95.0" departSpeed="31.05555768632834" departLane="1"/>
  <vehicle id="126" type="type1" route="wholeHighway" depart="1820.0" departPos="95.0" departSpeed="31.240211889353358" departLane="1"/>
  <vehicle id="127" type="type1" route="wholeHighway" depart="1830.0" departPos="95.0" departSpeed="30.998458279211505" departLane="1"/>
  <vehicle id="128" type="type1" route="wholeHighway" depart="1840.0" departPos="95.0" departSpeed="30.77447388554295" departLane="1"/>
  <vehicle id="129" type="type1" route="wholeHighway" depart="1850.0" departPos="95.0" departSpeed="30.833412248730557" departLane="1"/>
  <vehicle id="130" type="type1" route="wholeHighway" depart="1860.0" departPos="95.0" departSpeed="30.341905394286282" departLane="1"/>
  <vehicle id="131" type="type1" route="wholeHighway" depart="1880.0" departPos="95.0" departSpeed="27.07425496378135" departLane="1"/>
  <vehicle id="132" type="type1" route="wholeHighway" depart="1890.0" departPos="95.0" departSpeed="31.430568406260598" departLane="0"/>
  <vehicle id="133" type="type1" route="wholeHighway" depart="1900.0" departPos="95.0" departSpeed="27.864565546180668" departLane="1"/>
  <vehicle id="134" type="type1" route="wholeHighway" depart="1920.0" departPos="95.0" departSpeed="31.28444501694293" departLane="0"/>
  <vehicle id="135" type="type1" route="wholeHighway" depart="1920.0" departPos="95.0" departSpeed="26.18204558585442" departLane="1"/>
  <vehicle id="136" type="type1" route="wholeHighway" depart="1928.5714285714287" departPos="95.0" departSpeed="31.22331216101473" departLane="1"/>
  <vehicle id="137" type="type1" route="wholeHighway" depart="1935.0" departPos="95.0" departSpeed="30.280597455526543" departLane="0"/>
  <vehicle id="138" type="type1" route="wholeHighway" depart="1937.1428571428573" departPos="95.0" departSpeed="31.889341029706173" departLane="1"/>
  <vehicle id="139" type="type1" route="wholeHighway" depart="1945.714285714286" departPos="95.0" departSpeed="32.73599591229516" departLane="1"/>
  <vehicle id="140" type="type1" route="wholeHighway" depart="1950.0" departPos="95.0" departSpeed="31.465462114591556" departLane="0"/>
  <vehicle id="141" type="type1" route="wholeHighway" depart="1954.2857142857147" departPos="95.0" departSpeed="32.710035759589715" departLane="1"/>
  <vehicle id="142" type="type1" route="wholeHighway" depart="1962.8571428571433" departPos="95.0" departSpeed="31.108338966260266" departLane="1"/>
  <vehicle id="143" type="type1" route="wholeHighway" depart="1965.0" departPos="95.0" departSpeed="31.412130437331843" departLane="0"/>
  <vehicle id="144" type="type1" route="wholeHighway" depart="1971.428571428572" departPos="95.0" departSpeed="32.69808852345243" departLane="1"/>
  <vehicle id="145" type="type1" route="wholeHighway" depart="1980.0" departPos="95.0" departSpeed="31.933433388344305" departLane="0"/>
  <vehicle id="146" type="type1" route="wholeHighway" depart="1980.0000000000007" departPos="95.0" departSpeed="32.14398501138872" departLane="1"/>
  <vehicle id="147" type="type1" route="wholeHighway" depart="2010.0" departPos="95.0" departSpeed="29.28808775039089" departLane="1"/>
  <vehicle id="148" type="type1" route="wholeHighway" depart="2040.0" departPos="95.0" departSpeed="28.017155534107314" departLane="1"/>
  <vehicle id="149" type="type1" route="wholeHighway" depart="2070.0" departPos="95.0" departSpeed="30.845468666739006" departLane="0"/>
  <vehicle id="150" type="type1" route="wholeHighway" depart="2100.0" departPos="95.0" departSpeed="30.34199164439604" departLane="0"/>
  <vehicle id="151" type="type1" route="wholeHighway" depart="2100.0" departPos="95.0" departSpeed="31.029861027330547" departLane="1"/>
  <vehicle id="152" type="type1" route="wholeHighway" depart="2115.0" departPos="95.0" departSpeed="34.627644661563146" departLane="0"/>
  <vehicle id="153" type="type1" route="wholeHighway" depart="2120.0" departPos="95.0" departSpeed="33.105289099456925" departLane="1"/>
  <vehicle id="154" type="type1" route="wholeHighway" depart="2130.0" departPos="95.0" departSpeed="34.88235743799871" departLane="0"/>
  <vehicle id="155" type="type1" route="wholeHighway" depart="2140.0" departPos="95.0" departSpeed="31.551990465143753" departLane="1"/>
  <vehicle id="156" type="type1" route="wholeHighway" depart="2145.0" departPos="95.0" departSpeed="33.96268084170331" departLane="0"/>
  <vehicle id="157" type="type1" route="wholeHighway" depart="2160.0" departPos="95.0" departSpeed="34.9021260936112" departLane="0"/>
  <vehicle id="158" type="type1" route="wholeHighway" depart="2160.0" departPos="95.0" departSpeed="32.1839599970916" departLane="1"/>
  <vehicle id="159" type="type1" route="wholeHighway" depart="2175.0" departPos="95.0" departSpeed="35.96951309958802" departLane="1"/>
  <vehicle id="160" type="type1" route="wholeHighway" depart="2190.0" departPos="95.0" departSpeed="35.10059386826449" departLane="0"/>
  <vehicle id="161" type="type1" route="wholeHighway" depart="2190.0" departPos="95.0" departSpeed="34.5150683156849" departLane="1"/>
  <vehicle id="162" type="type1" route="wholeHighway" depart="2205.0" departPos="95.0" departSpeed="36.0" departLane="1"/>
  <vehicle id="163" type="type1" route="wholeHighway" depart="2220.0" departPos="95.0" departSpeed="35.00688694213601" departLane="0"/>
  <vehicle id="164" type="type1" route="wholeHighway" depart="2220.0" departPos="95.0" departSpeed="35.191953797162995" departLane="1"/>
  <vehicle id="165" type="type1" route="wholeHighway" depart="2280.0" departPos="95.0" departSpeed="36.0" departLane="0"/>
  <vehicle id="166" type="type1" route="wholeHighway" depart="2280.0" departPos="95.0" departSpeed="27.918959192465117" departLane="1"/>
  <vehicle id="167" type="type1" route="wholeHighway" depart="2300.0" departPos="95.0" departSpeed="34.24448712103898" departLane="0"/>
  <vehicle id="168" type="type1" route="wholeHighway" depart="2310.0" departPos="95.0" departSpeed="28.81285535171966" departLane="1"/>
  <vehicle id="169" type="type1" route="wholeHighway" depart="2320.0" departPos="95.0" departSpeed="34.31733087897546" departLane="0"/>
  <vehicle id="170" type="type1" route="wholeHighway" depart="2340.0" departPos="95.0" departSpeed="34.4826137230939" departLane="0"/>
  <vehicle id="171" type="type1" route="wholeHighway" depart="2340.0" departPos="95.0" departSpeed="28.709382759514675" departLane="1"/>
  <vehicle id="172" type="type1" route="wholeHighway" depart="2355.0" departPos="95.0" departSpeed="29.82108113511096" departLane="1"/>
  <vehicle id="173" type="type1" route="wholeHighway" depart="2370.0" departPos="95.0" departSpeed="29.778313396718616" departLane="1"/>
  <vehicle id="174" type="type1" route="wholeHighway" depart="2385.0" departPos="95.0" departSpeed="29.645422438717397" departLane="1"/>
  <vehicle id="175" type="type1" route="wholeHighway" depart="2400.0" departPos="95.0" departSpeed="36.0" departLane="0"/>
  <vehicle id="176" type="type1" route="wholeHighway" depart="2400.0" departPos="95.0" departSpeed="29.41645007793012" departLane="1"/>
  <vehicle id="177" type="type1" route="wholeHighway" depart="2420.0" departPos="95.0" departSpeed="31.678724430324866" departLane="1"/>
  <vehicle id="178" type="type1" route="wholeHighway" depart="2440.0" departPos="95.0" departSpeed="31.207556960535197" departLane="1"/>
  <vehicle id="179" type="type1" route="wholeHighway" depart="2460.0" departPos="95.0" departSpeed="29.85542579001503" departLane="1"/>
  <vehicle id="180" type="type1" route="wholeHighway" depart="2475.0" departPos="95.0" departSpeed="25.588090713738826" departLane="1"/>
  <vehicle id="181" type="type1" route="wholeHighway" depart="2490.0" departPos="95.0" departSpeed="33.75082214096215" departLane="0"/>
  <vehicle id="182" type="type1" route="wholeHighway" depart="2490.0" departPos="95.0" departSpeed="25.90406802193608" departLane="1"/>
  <vehicle id="183" type="type1" route="wholeHighway" depart="2505.0" departPos="95.0" departSpeed="26.358826042118935" departLane="1"/>
  <vehicle id="184" type="type1" route="wholeHighway" depart="2520.0" departPos="95.0" departSpeed="32.28732347239956" departLane="0"/>
  <vehicle id="185" type="type1" route="wholeHighway" depart="2520.0" departPos="95.0" departSpeed="27.334671415689126" departLane="1"/>
  <vehicle id="186" type="type1" route="wholeHighway" depart="2540.0" departPos="95.0" departSpeed="28.395015455299486" departLane="1"/>
  <vehicle id="187" type="type1" route="wholeHighway" depart="2560.0" departPos="95.0" departSpeed="29.006176790097907" departLane="1"/>
  <vehicle id="188" type="type1" route="wholeHighway" depart="2580.0" departPos="95.0" departSpeed="29.67638275694364" departLane="0"/>
  <vehicle id="189" type="type1" route="wholeHighway" depart="2580.0" departPos="95.0" departSpeed="28.364469875323767" departLane="1"/>
  <vehicle id="190" type="type1" route="wholeHighway" depart="2600.0" departPos="95.0" departSpeed="32.3168813816656" departLane="1"/>
  <vehicle id="191" type="type1" route="wholeHighway" depart="2610.0" departPos="95.0" departSpeed="29.55627017060598" departLane="0"/>
  <vehicle id="192" type="type1" route="wholeHighway" depart="2620.0" departPos="95.0" departSpeed="33.2827780593909" departLane="1"/>
  <vehicle id="193" type="type1" route="wholeHighway" depart="2640.0" departPos="95.0" departSpeed="30.260612208873955" departLane="0"/>
  <vehicle id="194" type="type1" route="wholeHighway" depart="2640.0" departPos="95.0" departSpeed="31.249750817523395" departLane="1"/>
  <vehicle id="195" type="type1" route="wholeHighway" depart="2700.0" departPos="95.0" departSpeed="36.0" departLane="0"/>
  <vehicle id="196" type="type1" route="wholeHighway" depart="2700.0" departPos="95.0" departSpeed="30.449177341426395" departLane="1"/>
  <vehicle id="197" type="type1" route="wholeHighway" depart="2715.0" departPos="95.0" departSpeed="24.667788617539426" departLane="1"/>
  <vehicle id="198" type="type1" route="wholeHighway" depart="2730.0" departPos="95.0" departSpeed="24.53179429665234" departLane="1"/>
  <vehicle id="199" type="type1" route="wholeHighway" depart="2745.0" departPos="95.0" departSpeed="24.99691629354702" departLane="1"/>
  <vehicle id="200" type="type1" route="wholeHighway" depart="2760.0" departPos="95.0" departSpeed="25.401085982798225" departLane="1"/>
  <vehicle id="201" type="type1" route="wholeHighway" depart="2772.0" departPos="95.0" departSpeed="28.94732852987051" departLane="1"/>
  <vehicle id="202" type="type1" route="wholeHighway" depart="2784.0" departPos="95.0" departSpeed="29.7902946846845" departLane="1"/>
  <vehicle id="203" type="type1" route="wholeHighway" depart="2790.0" departPos="95.0" departSpeed="36.0" departLane="0"/>
  <vehicle id="204" type="type1" route="wholeHighway" depart="2796.0" departPos="95.0" departSpeed="30.462204612172034" departLane="1"/>
  <vehicle id="205" type="type1" route="wholeHighway" depart="2808.0" departPos="95.0" departSpeed="30.121797411295614" departLane="1"/>
  <vehicle id="206" type="type1" route="wholeHighway" depart="2820.0" departPos="95.0" departSpeed="36.0" departLane="0"/>
  <vehicle id="207" type="type1" route="wholeHighway" depart="2820.0" departPos="95.0" departSpeed="30.383824702820537" departLane="1"/>
  <vehicle id="208" type="type1" route="wholeHighway" depart="2840.0" departPos="95.0" departSpeed="31.799688599639758" departLane="1"/>
  <vehicle id="209" type="type1" route="wholeHighway" depart="2850.0" departPos="95.0" departSpeed="36.0" departLane="0"/>
  <vehicle id="210" type="type1" route="wholeHighway" depart="2860.0" departPos="95.0" departSpeed="30.818894370784243" departLane="1"/>
  <vehicle id="211" type="type1" route="wholeHighway" depart="2880.0" departPos="95.0" departSpeed="36.0" departLane="0"/>
  <vehicle id="212" type="type1" route="wholeHighway" depart="2880.0" departPos="95.0" departSpeed="30.921746290859403" departLane="1"/>
  <vehicle id="213" type="type1" route="wholeHighway" depart="2910.0" departPos="95.0" departSpeed="29.366558259948764" departLane="1"/>
  <vehicle id="214" type="type1" route="wholeHighway" depart="2940.0" departPos="95.0" departSpeed="29.329562389864417" departLane="1"/>
  <vehicle id="215" type="type1" route="wholeHighway" depart="2960.0" departPos="95.0" departSpeed="35.524695922945014" departLane="0"/>
  <vehicle id="216" type="type1" route="wholeHighway" depart="2960.0" departPos="95.0" departSpeed="25.558018355329533" departLane="1"/>
  <vehicle id="217" type="type1" route="wholeHighway" depart="2980.0" departPos="95.0" departSpeed="36.0" departLane="0"/>
  <vehicle id="218" type="type1" route="wholeHighway" depart="2980.0" departPos="95.0" departSpeed="26.09898906803831" departLane="1"/>
  <vehicle id="219" type="type1" route="wholeHighway" depart="3000.0" departPos="95.0" departSpeed="36.0" departLane="0"/>