<?xml version="1.0" encoding="UTF-8"?>

<routes>
  <vType id="type1" accel="0.8" decel="4.5" sigma="0.5" length="5.0" maxSpeed="70.0"/>
  <route id="wholeHighway" color="1,1,0" edges="7b 8b 9b 10b 11b"/>
  <vehicle id="0" type="type1" route="wholeHighway" depart="90.0" departPos="95.0" departSpeed="36.0" departLane="0"/>
  <vehicle id="1" type="type1" route="wholeHighway" depart="120.0" departPos="95.0" departSpeed="36.0" departLane="0"/>
  <vehicle id="2" type="type1" route="wholeHighway" depart="240.0" departPos="95.0" departSpeed="32.36915736030767" departLane="0"/>
  <vehicle id="3" type="type1" route="wholeHighway" depart="360.0" departPos="95.0" departSpeed="29.637360628189708" departLane="0"/>
  <vehicle id="4" type="type1" route="wholeHighway" depart="420.0" departPos="95.0" departSpeed="33.25714436789892" departLane="0"/>
  <vehicle id="5" type="type1" route="wholeHighway" depart="540.0" departPos="95.0" departSpeed="33.72231951668682" departLane="0"/>
  <vehicle id="6" type="type1" route="wholeHighway" depart="560.0" departPos="95.0" departSpeed="36.0" departLane="0"/>
  <vehicle id="7" type="type1" route="wholeHighway" depart="580.0" departPos="95.0" departSpeed="36.0" departLane="0"/>
  <vehicle id="8" type="type1" route="wholeHighway" depart="600.0" departPos="95.0" departSpeed="36.0" departLane="0"/>
  <vehicle id="9" type="type1" route="wholeHighway" depart="660.0" departPos="95.0" departSpeed="36.0" departLane="0"/>
  <vehicle id="10" type="type1" route="wholeHighway" depart="720.0" departPos="95.0" departSpeed="36.0" departLane="0"/>
  <vehicle id="11" type="type1" route="wholeHighway" depart="900.0" departPos="95.0" departSpeed="34.367688771352846" departLane="0"/>
  <vehicle id="12" type="type1" route="wholeHighway" depart="990.0" departPos="95.0" departSpeed="36.0" departLane="0"/>
  <vehicle id="13" type="type1" route="wholeHighway" depart="1020.0" departPos="95.0" departSpeed="36.0" departLane="0"/>
  <vehicle id="14" type="type1" route="wholeHighway" depart="1050.0" departPos="95.0" departSpeed="36.0" departLane="0"/>
  <vehicle id="15" type="type1" route="wholeHighway" depart="1080.0" departPos="95.0" departSpeed="36.0" departLane="0"/>
  <vehicle id="16" type="type1" route="wholeHighway" depart="1170.0" departPos="95.0" departSpeed="36.0" departLane="0"/>
  <vehicle id="17" type="type1" route="wholeHighway" depart="1200.0" departPos="95.0" departSpeed="36.0" departLane="0"/>
  <vehicle id="18" type="type1" route="wholeHighway" depart="1260.0" departPos="95.0" departSpeed="36.0" departLane="0"/>
  <vehicle id="19" type="type1" route="wholeHighway" depart="1290.0" departPos="95.0" departSpeed="36.0" departLane="0"/>
  <vehicle id="20" type="type1" route="wholeHighway" depart="1320.0" departPos="95.0" departSpeed="36.0" departLane="0"/>
  <vehicle id="21" type="type1" route="wholeHighway" depart="1340.0" departPos="95.0" departSpeed="31.570563584500448" departLane="0"/>
  <vehicle id="22" type="type1" route="wholeHighway" depart="1360.0" departPos="95.0" departSpeed="31.930837462257603" departLane="0"/>
  <vehicle id="23" type="type1" route="wholeHighway" depart="1380.0" departPos="95.0" departSpeed="32.259412117205656" departLane="0"/>
  <vehicle id="24" type="type1" route="wholeHighway" depart="1590.0" departPos="95.0" departSpeed="35.9338285868804" departLane="0"/>
  <vehicle id="25" type="type1" route="wholeHighway" depart="1620.0" departPos="95.0" departSpeed="35.68234661442588" departLane="0"/>
  <vehicle id="26" type="type1" route="wholeHighway" depart="1680.0" departPos="95.0" departSpeed="35.78931579826014" departLane="0"/>
  <vehicle id="27" type="type1" route="wholeHighway" depart="1710.0" departPos="95.0" departSpeed="34.76506200215759" departLane="0"/>
  <vehicle id="28" type="type1" route="wholeHighway" depart="1740.0" departPos="95.0" departSpeed="35.18368740764073" departLane="0"/>
  <vehicle id="29" type="type1" route="wholeHighway" depart="1860.0" departPos="95.0" departSpeed="36.0" departLane="0"/>
  <vehicle id="30" type="type1" route="wholeHighway" depart="1890.0" departPos="95.0" departSpeed="34.58593518261826" departLane="0"/>
  <vehicle id="31" type="type1" route="wholeHighway" depart="1920.0" departPos="95.0" departSpeed="34.47410744479835" departLane="0"/>
  <vehicle id="32" type="type1" route="wholeHighway" depart="1935.0" departPos="95.0" departSpeed="32.75146574058461" departLane="0"/>
  <vehicle id="33" type="type1" route="wholeHighway" depart="1950.0" departPos="95.0" departSpeed="33.27617473582566" departLane="0"/>
  <vehicle id="34" type="type1" route="wholeHighway" depart="1965.0" departPos="95.0" departSpeed="32.73253816547246" departLane="0"/>
  <vehicle id="35" type="type1" route="wholeHighway" depart="1980.0" departPos="95.0" departSpeed="33.05040139285089" departLane="0"/>
  <vehicle id="36" type="type1" route="wholeHighway" depart="2100.0" departPos="95.0" departSpeed="27.625993333455163" departLane="0"/>
  <vehicle id="37" type="type1" route="wholeHighway" depart="2160.0" departPos="95.0" departSpeed="36.0" departLane="0"/>
  <vehicle id="38" type="type1" route="wholeHighway" depart="2240.0" departPos="95.0" departSpeed="36.0" departLane="0"/>
  <vehicle id="39" type="type1" route="wholeHighway" depart="2260.0" departPos="95.0" departSpeed="36.0" departLane="0"/>
  <vehicle id="40" type="type1" route="wholeHighway" depart="2280.0" departPos="95.0" departSpeed="36.0" departLane="0"/>
  <vehicle id="41" type="type1" route="wholeHighway" depart="2340.0" departPos="95.0" departSpeed="36.0" departLane="0"/>
  <vehicle id="42" type="type1" route="wholeHighway" depart="2520.0" departPos="95.0" departSpeed="32.21910346430397" departLane="0"/>
  <vehicle id="43" type="type1" route="wholeHighway" depart="2610.0" departPos="95.0" departSpeed="31.630168529783525" departLane="0"/>
  <vehicle id="44" type="type1" route="wholeHighway" depart="2640.0" departPos="95.0" departSpeed="31.089221899215612" departLane="0"/>
  <vehicle id="45" type="type1" route="wholeHighway" depart="2780.0" departPos="95.0" departSpeed="35.85895929984695" departLane="0"/>
  <vehicle id="46" type="type1" route="wholeHighway" depart="2800.0" departPos="95.0" departSpeed="35.55747961944291" departLane="0"/>
  <vehicle id="47" type="type1" route="wholeHighway" depart="2820.0" departPos="95.0" departSpeed="35.195417708494425" departLane="0"/>
  <vehicle id="48" type="type1" route="wholeHighway" depart="2850.0" departPos="95.0" departSpeed="36.0" departLane="0"/>
  <vehicle id="49" type="type1" route="wholeHighway" depart="2880.0" departPos="95.0" departSpeed="36.0" departLane="0"/>
  <vehicle id="50" type="type1" route="wholeHighway" depart="2955.0" departPos="95.0" departSpeed="33.58541116592265" departLane="0"/>
  <vehicle id="51" type="type1" route="wholeHighway" depart="2970.0" departPos="95.0" departSpeed="34.21556393761197" departLane="0"/>
  <vehicle id="52" type="type1" route="wholeHighway" depart="2985.0" departPos="95.0" departSpeed="34.06291797484773" departLane="0"/>
  <vehicle id="53" type="type1" route="wholeHighway" depart="3000.0" departPos="95.0" departSpeed="31.880055579448946" departLane="0"/>
  <vehicle id="54" type="type1" route="wholeHighway" depart="3060.0" departPos="95.0" departSpeed="34.25231831387304" departLane="0"/>
  <vehicle id="55" type="type1" route="wholeHighway" depart="3090.0" departPos="95.0" departSpeed="26.930383650079513" departLane="0"/>
  <vehicle id="56" type="type1" route="wholeHighway" depart="3120.0" departPos="95.0" departSpeed="25.559781448235455" departLane="0"/>
  <vehicle id="57" type="type1" route="wholeHighway" depart="3180.0" departPos="95.0" departSpeed="36.0" departLane="0"/>
  <vehicle id="58" type="type1" route="wholeHighway" depart="3240.0" departPos="95.0" departSpeed="34.28772928836003" departLane="0"/>
  <vehicle id="59" type="type1" route="wholeHighway" depart="3260.0" departPos="95.0" departSpeed="36.0" departLane="0"/>
  <vehicle id="60" type="type1" route="wholeHighway" depart="3280.0" departPos="95.0" departSpeed="36.0" departLane="0"/>
  <vehicle id="61" type="type1" route="wholeHighway" depart="3300.0" departPos="95.0" departSpeed="36.0" departLane="0"/>
  <vehicle id="62" type="type1" route="wholeHighway" depart="3440.0" departPos="95.0" departSpeed="34.9808435835561" departLane="0"/>
  <vehicle id="63" type="type1" route="wholeHighway" depart="3460.0" departPos="95.0" departSpeed="33.661459470183395" departLane="0"/>
  <vehicle id="64" type="type1" route="wholeHighway" depart="3480.0" departPos="95.0" departSpeed="35.01954195043106" departLane="0"/>
  <vehicle id="65" type="type1" route="wholeHighway" depart="3600.0" departPos="95.0" departSpeed="31.598440605922256" departLane="0"/>
  <vehicle id="66" type="type1" route="wholeHighway" depart="3840.0" departPos="95.0" departSpeed="30.9036861774769" departLane="0"/>
  <vehicle id="67" type="type1" route="wholeHighway" depart="3900.0" departPos="95.0" departSpeed="29.50968294053223" departLane="0"/>
  <vehicle id="68" type="type1" route="wholeHighway" depart="4320.0" departPos="95.0" departSpeed="36.0" departLane="0"/>
  <vehicle id="69" type="type1" route="wholeHighway" depart="4620.0" departPos="95.0" departSpeed="25.24011500325174" departLane="0"/>
  <vehicle id="70" type="type1" route="wholeHighway" depart="4740.0" departPos="95.0" departSpeed="29.62614938214399" departLane="0"/>
  <vehicle id="71" type="type1" route="wholeHighway" depart="4800.0" departPos="95.0" departSpeed="32.95127801450682" departLane="0"/>
  <vehicle id="72" type="type1" route="wholeHighway" depart="5220.0" departPos="95.0" departSpeed="36.0" departLane="0"/>
  <vehicle id="73" type="type1" route="wholeHighway" depart="5280.0" departPos="95.0" departSpeed="36.0" departLane="0"/>
  <vehicle id="74" type="type1" route="wholeHighway" depart="5340.0" departPos="95.0" departSpeed="34.01082324007077" departLane="0"/>
  <vehicle id="75" type="type1" route="wholeHighway" depart="5430.0" departPos="95.0" departSpeed="34.71733236978213" departLane="0"/>
  <vehicle id="76" type="type1" route="wholeHighway" depart="5460.0" departPos="95.0" departSpeed="35.418251040039536" departLane="0"/>
  <vehicle id="77" type="type1" route="wholeHighway" depart="5490.0" departPos="95.0" departSpeed="36.0" departLane="0"/>
  <vehicle id="78" type="type1" route="wholeHighway" depart="5520.0" departPos="95.0" departSpeed="36.0" departLane="0"/>
  <vehicle id="79" type="type1" route="wholeHighway" depart="5700.0" departPos="95.0" departSpeed="36.0" departLane="0"/>
  <vehicle id="80" type="type1" route="wholeHighway" depart="5880.0" departPos="95.0" departSpeed="36.0" departLane="0"/>
  <vehicle id="81" type="type1" route="wholeHighway" depart="6180.0" departPos="95.0" departSpeed="31.160839185136638" departLane="0"/>
  <vehicle id="82" type="type1" route="wholeHighway" depart="6480.0" departPos="95.0" departSpeed="35.30986445865468" departLane="0"/>
  <vehicle id="83" type="type1" route="wholeHighway" depart="6900.0" departPos="95.0" departSpeed="29.89181700919263" departLane="0"/>
  <vehicle id="84" type="type1" route="wholeHighway" depart="7020.0" departPos="95.0" departSpeed="32.91852887716553" departLane="0"/>
  <vehicle id="85" type="type1" route="wholeHighway" depart="7080.0" departPos="95.0" departSpeed="36.0" departLane="0"/>
  <vehicle id="86" type="type1" route="wholeHighway" depart="7095.0" departPos="95.0" departSpeed="35.338367612273764" departLane="0"/>
  <vehicle id="87" type="type1" route="wholeHighway" depart="7110.0" departPos="95.0" departSpeed="35.90791060355225" departLane="0"/>
  <vehicle id="88" type="type1" route="wholeHighway" depart="7125.0" departPos="95.0" departSpeed="34.57345416101305" departLane="0"/>
  <vehicle id="89" type="type1" route="wholeHighway" depart="7140.0" departPos="95.0" departSpeed="36.0" departLane="0"/>
  <vehicle id="90" type="type1" route="wholeHighway" depart="7170.0" departPos="95.0" departSpeed="30.04241895446772" departLane="0"/>
  <vehicle id="91" type="type1" route="wholeHighway" depart="7200.0" departPos="95.0" departSpeed="30.82992641599565" departLane="0"/>
  <vehicle id="92" type="type1" route="wholeHighway" depart="7280.0" departPos="95.0" departSpeed="31.955362524520098" departLane="0"/>
  <vehicle id="93" type="type1" route="wholeHighway" depart="7300.0" departPos="95.0" departSpeed="31.51222701102944" departLane="0"/>
  <vehicle id="94" type="type1" route="wholeHighway" depart="7320.0" departPos="95.0" departSpeed="32.9420276783102" departLane="0"/>
  <vehicle id="95" type="type1" route="wholeHighway" depart="7560.0" departPos="95.0" departSpeed="36.0" departLane="0"/>
  <vehicle id="96" type="type1" route="wholeHighway" depart="7590.0" departPos="95.0" departSpeed="31.341135874923378" departLane="0"/>
  <vehicle id="97" type="type1" route="wholeHighway" depart="7620.0" departPos="95.0" departSpeed="31.47595371217921" departLane="0"/>
  <vehicle id="98" type="type1" route="wholeHighway" depart="7680.0" departPos="95.0" departSpeed="36.0" departLane="0"/>
  <vehicle id="99" type="type1" route="wholeHighway" depart="7830.0" departPos="95.0" departSpeed="36.0" departLane="0"/>
  <vehicle id="100" type="type1" route="wholeHighway" depart="7860.0" departPos="95.0" departSpeed="36.0" departLane="0"/>
  <vehicle id="101" type="type1" route="wholeHighway" depart="7940.0" departPos="95.0" departSpeed="31.2096876379243" departLane="0"/>
  <vehicle id="102" type="type1" route="wholeHighway" depart="7960.0" departPos="95.0" departSpeed="33.244260208501004" departLane="0"/>
  <vehicle id="103" type="type1" route="wholeHighway" depart="7980.0" departPos="95.0" departSpeed="32.937273230568294" departLane="0"/>
  <vehicle id="104" type="type1" route="wholeHighway" depart="8220.0" departPos="95.0" departSpeed="35.04310046716871" departLane="0"/>
  <vehicle id="105" type="type1" route="wholeHighway" depart="8310.0" departPos="95.0" departSpeed="28.785935953427284" departLane="0"/>
  <vehicle id="106" type="type1" route="wholeHighway" depart="8340.0" departPos="95.0" departSpeed="28.976409816875442" departLane="0"/>
  <vehicle id="107" type="type1" route="wholeHighway" depart="8400.0" departPos="95.0" departSpeed="34.92096051194048" departLane="0"/>
  <vehicle id="108" type="type1" route="wholeHighway" depart="8670.0" departPos="95.0" departSpeed="36.0" departLane="0"/>
  <vehicle id="109" type="type1" route="wholeHighway" depart="8700.0" departPos="95.0" departSpeed="36.0" departLane="0"/>
  <vehicle id="110" type="type1" route="wholeHighway" depart="8910.0" departPos="95.0" departSpeed="32.24131843156386" departLane="0"/>
  <vehicle id="111" type="type1" route="wholeHighway" depart="8940.0" departPos="95.0" departSpeed="32.46667751973406" departLane="0"/>
  <vehicle id="112" type="type1" route="wholeHighway" depart="8960.0" departPos="95.0" departSpeed="36.0" departLane="0"/>
  <vehicle id="113" type="type1" route="wholeHighway" depart="8980.0" departPos="95.0" departSpeed="36.0" departLane="0"/>
  <vehicle id="114" type="type1" route="wholeHighway" depart="9000.0" departPos="95.0" departSpeed="36.0" departLane="0"/>
  <vehicle id="115" type="type1" route="wholeHighway" depart="9030.0" departPos="95.0" departSpeed="32.40474067274086" departLane="0"/>
  <vehicle id="116" type="type1" route="wholeHighway" depart="9060.0" departPos="95.0" departSpeed="33.74972977533907" departLane="0"/>
  <vehicle id="117" type="type1" route="wholeHighway" depart="9135.0" departPos="95.0" departSpeed="31.049895434481936" departLane="0"/>
  <vehicle id="118" type="type1" route="wholeHighway" depart="9150.0" departPos="95.0" departSpeed="30.41617551016378" departLane="0"/>
  <vehicle id="119" type="type1" route="wholeHighway" depart="9165.0" departPos="95.0" departSpeed="30.537287180378552" departLane="0"/>
  <vehicle id="120" type="type1" route="wholeHighway" depart="9180.0" departPos="95.0" departSpeed="30.302891352719605" departLane="0"/>
  <vehicle id="121" type="type1" route="wholeHighway" depart="9240.0" departPos="95.0" departSpeed="35.70314519033872" departLane="0"/>
  <vehicle id="122" type="type1" route="wholeHighway" depart="9330.0" departPos="95.0" departSpeed="36.0" departLane="0"/>
  <vehicle id="123" type="type1" route="wholeHighway" depart="9360.0" departPos="95.0" departSpeed="36.0" departLane="0"/>
  <vehicle id="124" type="type1" route="wholeHighway" depart="9720.0" departPos="95.0" departSpeed="36.0" departLane="0"/>
  <vehicle id="125" type="type1" route="wholeHighway" depart="9810.0" departPos="95.0" departSpeed="36.0" departLane="0"/>
  <vehicle id="126" type="type1" route="wholeHighway" depart="9840.0" departPos="95.0" departSpeed="36.0" departLane="0"/>
  <vehicle id="127" type="type1" route="wholeHighway" depart="10050.0" departPos="95.0" departSpeed="32.959080242282226" departLane="0"/>
  <vehicle id="128" type="type1" route="wholeHighway" depart="10080.0" departPos="95.0" departSpeed="33.037664669190605" departLane="0"/>
  <vehicle id="129" type="type1" route="wholeHighway" depart="10440.0" departPos="95.0" departSpeed="36.0" departLane="0"/>
  <vehicle id="130" type="type1" route="wholeHighway" depart="10530.0" departPos="95.0" departSpeed="32.08394429370286" departLane="0"/>
  <vehicle id="131" type="type1" route="wholeHighway" depart="10560.0" departPos="95.0" departSpeed="31.330609426352122" departLane="0"/>
  <vehicle id="132" type="type1" route="wholeHighway" depart="10680.0" departPos="95.0" departSpeed="36.0" departLane="0"/>
  <vehicle id="133" type="type1" route="wholeHighway" depart="10740.0" departPos="95.0" departSpeed="36.0" departLane="0"/>
  <vehicle id="134" type="type1" route="wholeHighway" depart="10800.0" departPos="95.0" departSpeed="36.0" departLane="0"/>
  <vehicle id="135" type="type1" route="wholeHighway" depart="10980.0" departPos="95.0" departSpeed="36.0" departLane="0"/>
  <vehicle id="136" type="type1" route="wholeHighway" depart="11700.0" departPos="95.0" departSpeed="36.0" departLane="0"/>
  <vehicle id="137" type="type1" route="wholeHighway" depart="11820.0" departPos="95.0" departSpeed="36.0" departLane="0"/>
  <vehicle id="138" type="type1" route="wholeHighway" depart="12240.0" departPos="95.0" departSpeed="36.0" departLane="0"/>
  <vehicle id="139" type="type1" route="wholeHighway" depart="12420.0" departPos="95.0" departSpeed="33.45582450101915" departLane="0"/>
  <vehicle id="140" type="type1" route="wholeHighway" depart="12480.0" departPos="95.0" departSpeed="33.926337264178315" departLane="0"/>
  <vehicle id="141" type="type1" route="wholeHighway" depart="12780.0" departPos="95.0" departSpeed="32.93315338186897" departLane="0"/>
  <vehicle id="142" type="type1" route="wholeHighway" depart="13020.0" departPos="95.0" departSpeed="30.78015411635948" departLane="0"/>
  <vehicle id="143" type="type1" route="wholeHighway" depart="13200.0" departPos="95.0" departSpeed="33.67038907647931" departLane="0"/>
  <vehicle id="144" type="type1" route="wholeHighway" depart="13320.0" departPos="95.0" departSpeed="30.441117606273316" departLane="0"/>
  <vehicle id="145" type="type1" route="wholeHighway" depart="13380.0" departPos="95.0" departSpeed="35.204697970087295" departLane="0"/>
  <vehicle id="146" type="type1" route="wholeHighway" depart="13440.0" departPos="95.0" departSpeed="36.0" departLane="0"/>
  <vehicle id="147" type="type1" route="wholeHighway" depart="13470.0" departPos="95.0" departSpeed="33.79131479866621" departLane="0"/>
  <vehicle id="148" type="type1" route="wholeHighway" depart="13500.0" departPos="95.0" departSpeed="33.89562047066113" departLane="0"/>
  <vehicle id="149" type="type1" route="wholeHighway" depart="13620.0" departPos="95.0" departSpeed="23.9648526665242" departLane="0"/>
  <vehicle id="150" type="type1" route="wholeHighway" depart="13650.0" departPos="95.0" departSpeed="35.040859277010874" departLane="0"/>
  <vehicle id="151" type="type1" route="wholeHighway" depart="13680.0" departPos="95.0" departSpeed="34.4597032053031" departLane="0"/>
  <vehicle id="152" type="type1" route="wholeHighway" depart="13860.0" departPos="95.0" departSpeed="29.746943266452895" departLane="0"/>
  <vehicle id="153" type="type1" route="wholeHighway" depart="13920.0" departPos="95.0" departSpeed="35.78226738957371" departLane="0"/>
  <vehicle id="154" type="type1" route="wholeHighway" depart="13980.0" departPos="95.0" departSpeed="36.0" departLane="0"/>
  <vehicle id="155" type="type1" route="wholeHighway" depart="14180.0" departPos="95.0" departSpeed="32.73822498367715" departLane="0"/>
  <vehicle id="156" type="type1" route="wholeHighway" depart="14200.0" departPos="95.0" departSpeed="33.33715416876302" departLane="0"/>
  <vehicle id="157" type="type1" route="wholeHighway" depart="14220.0" departPos="95.0" departSpeed="33.15250159574223" departLane="0"/>
  <vehicle id="158" type="type1" route="wholeHighway" depart="14250.0" departPos="95.0" departSpeed="35.26265384066878" departLane="0"/>
  <vehicle id="159" type="type1" route="wholeHighway" depart="14280.0" departPos="95.0" departSpeed="34.290844879259794" departLane="0"/>
  <vehicle id="160" type="type1" route="wholeHighway" depart="14340.0" departPos="95.0" departSpeed="36.0" departLane="0"/>
  <vehicle id="161" type="type1" route="wholeHighway" depart="14370.0" departPos="95.0" departSpeed="36.0" departLane="0"/>
  <vehicle id="162" type="type1" route="wholeHighway" depart="14400.0" departPos="95.0" departSpeed="36.0" departLane="0"/>
  <vehicle id="163" type="type1" route="wholeHighway" depart="14780.0" departPos="95.0" departSpeed="35.730472230130275" departLane="0"/>
  <vehicle id="164" type="type1" route="wholeHighway" depart="14800.0" departPos="95.0" departSpeed="36.0" departLane="0"/>
  <vehicle id="165" type="type1" route="wholeHighway" depart="14820.0" departPos="95.0" departSpeed="36.0" departLane="0"/>
  <vehicle id="166" type="type1" route="wholeHighway" depart="14940.0" departPos="95.0" departSpeed="36.0" departLane="0"/>
  <vehicle id="167" type="type1" route="wholeHighway" depart="14955.0" departPos="95.0" departSpeed="33.41690146509829" departLane="0"/>
  <vehicle id="168" type="type1" route="wholeHighway" depart="14970.0" departPos="95.0" departSpeed="32.77883475314547" departLane="0"/>
  <vehicle id="169" type="type1" route="wholeHighway" depart="14985.0" departPos="95.0" departSpeed="33.31056654354644" departLane="0"/>
  <vehicle id="170" type="type1" route="wholeHighway" depart="15000.0" departPos="95.0" departSpeed="31.668518358960853" departLane="0"/>
  <vehicle id="171" type="type1" route="wholeHighway" depart="15240.0" departPos="95.0" departSpeed="26.546186744077172" departLane="0"/>
  <vehicle id="172" type="type1" route="wholeHighway" depart="15270.0" departPos="95.0" departSpeed="31.25753903679867" departLane="0"/>
  <vehicle id="173" type="type1" route="wholeHighway" depart="15300.0" departPos="95.0" departSpeed="30.062442769104408" departLane="0"/>
  <vehicle id="174" type="type1" route="wholeHighway" depart="15360.0" departPos="95.0" departSpeed="36.0" departLane="0"/>
  <vehicle id="175" type="type1" route="wholeHighway" depart="15420.0" departPos="95.0" departSpeed="36.0" departLane="0"/>
  <vehicle id="176" type="type1" route="wholeHighway" depart="15480.0" departPos="95.0" departSpeed="36.0" departLane="0"/>
  <vehicle id="177" type="type1" route="wholeHighway" depart="15495.0" departPos="95.0" departSpeed="32.95542564681812" departLane="0"/>
  <vehicle id="178" type="type1" route="wholeHighway" depart="15510.0" departPos="95.0" departSpeed="35.05516567626133" departLane="0"/>
  <vehicle id="179" type="type1" route="wholeHighway" depart="15525.0" departPos="95.0" departSpeed="35.24528842515007" departLane="0"/>
  <vehicle id="180" type="type1" route="wholeHighway" depart="15540.0" departPos="95.0" departSpeed="33.92673649707935" departLane="0"/>
  <vehicle id="181" type="type1" route="wholeHighway" depart="15570.0" departPos="95.0" departSpeed="30.538279192922104" departLane="0"/>
  <vehicle id="182" type="type1" route="wholeHighway" depart="15600.0" departPos="95.0" departSpeed="32.00165063346055" departLane="0"/>
  <vehicle id="183" type="type1" route="wholeHighway" depart="15720.0" departPos="95.0" departSpeed="34.42739661024335" departLane="0"/>
  <vehicle id="184" type="type1" route="wholeHighway" depart="15780.0" departPos="95.0" departSpeed="36.0" departLane="0"/>
  <vehicle id="185" type="type1" route="wholeHighway" depart="15860.0" departPos="95.0" departSpeed="30.309053745657653" departLane="0"/>
  <vehicle id="186" type="type1" route="wholeHighway" depart="15880.0" departPos="95.0" departSpeed="31.82858225713655" departLane="0"/>
  <vehicle id="187" type="type1" route="wholeHighway" depart="15900.0" departPos="95.0" departSpeed="32.286519866288124" departLane="0"/>
  <vehicle id="188" type="type1" route="wholeHighway" depart="15960.0" departPos="95.0" departSpeed="30.657939991491535" departLane="0"/>
  <vehicle id="189" type="type1" route="wholeHighway" depart="16020.0" departPos="95.0" departSpeed="30.525158248024425" departLane="0"/>
  <vehicle id="190" type="type1" route="wholeHighway" depart="16040.0" departPos="95.0" departSpeed="29.690279379312944" departLane="0"/>
  <vehicle id="191" type="type1" route="wholeHighway" depart="16060.0" departPos="95.0" departSpeed="30.05925951541421" departLane="0"/>
  <vehicle id="192" type="type1" route="wholeHighway" depart="16080.0" departPos="95.0" departSpeed="30.008703750065706" departLane="0"/>
  <vehicle id="193" type="type1" route="wholeHighway" depart="16095.0" departPos="95.0" departSpeed="36.0" departLane="0"/>
  <vehicle id="194" type="type1" route="wholeHighway" depart="16110.0" departPos="95.0" departSpeed="36.0" departLane="0"/>
  <vehicle id="195" type="type1" route="wholeHighway" depart="16125.0" departPos="95.0" departSpeed="35.72119102670197" departLane="0"/>
  <vehicle id="196" type="type1" route="wholeHighway" depart="16140.0" departPos="95.0" departSpeed="36.0" departLane="0"/>
  <vehicle id="197" type="type1" route="wholeHighway" depart="16200.0" departPos="95.0" departSpeed="36.0" departLane="0"/>
  <vehicle id="198" type="type1" route="wholeHighway" depart="16230.0" departPos="95.0" departSpeed="30.182656785685907" departLane="0"/>
  <vehicle id="199" type="type1" route="wholeHighway" depart="16260.0" departPos="95.0" departSpeed="29.94216264099289" departLane="0"/>
  <vehicle id="200" type="type1" route="wholeHighway" depart="16320.0" departPos="95.0" departSpeed="36.0" departLane="0"/>
  <vehicle id="201" type="type1" route="wholeHighway" depart="16340.0" departPos="95.0" departSpeed="34.601667154206346" departLane="0"/>
  <vehicle id="202" type="type1" route="wholeHighway" depart="16360.0" departPos="95.0" departSpeed="34.23078890506308" departLane="0"/>
  <vehicle id="203" type="type1" route="wholeHighway" depart="16380.0" departPos="95.0" departSpeed="34.93577141772874" departLane="0"/>
  <vehicle id="204" type="type1" route="wholeHighway" depart="16410.0" departPos="95.0" departSpeed="30.750892271941737" departLane="0"/>
  <vehicle id="205" type="type1" route="wholeHighway" depart="16440.0" departPos="95.0" departSpeed="31.086478714060355" departLane="0"/>
  <vehicle id="206" type="type1" route="wholeHighway" depart="16560.0" departPos="95.0" departSpeed="30.977316699200358" departLane="0"/>
  <vehicle id="207" type="type1" route="wholeHighway" depart="16580.0" departPos="95.0" departSpeed="31.095344958770617" departLane="0"/>
  <vehicle id="208" type="type1" route="wholeHighway" depart="16600.0" departPos="95.0" departSpeed="32.355814723040474" departLane="0"/>
  <vehicle id="209" type="type1" route="wholeHighway" depart="16620.0" departPos="95.0" departSpeed="32.826644728276776" departLane="0"/>
  <vehicle id="210" type="type1" route="wholeHighway" depart="16640.0" departPos="95.0" departSpeed="36.0" departLane="0"/>
  <vehicle id="211" type="type1" route="wholeHighway" depart="16660.0" departPos="95.0" departSpeed="36.0" departLane="0"/>
  <vehicle id="212" type="type1" route="wholeHighway" depart="16680.0" departPos="95.0" departSpeed="36.0" departLane="0"/>
  <vehicle id="213" type="type1" route="wholeHighway" depart="16740.0" departPos="95.0" departSpeed="32.22907034282445" departLane="0"/>
  <vehicle id="214" type="type1" route="wholeHighway" depart="16770.0" departPos="95.0" departSpeed="36.0" departLane="0"/>
  <vehicle id="215" type="type1" route="wholeHighway" depart="16800.0" departPos="95.0" departSpeed="36.0" departLane="0"/>
  <vehicle id="216" type="type1" route="wholeHighway" depart="16815.0" departPos="95.0" departSpeed="32.549087807342424" departLane="0"/>
  <vehicle id="217" type="type1" route="wholeHighway" depart="16830.0" departPos="95.0" departSpeed="33.494945610612504" departLane="0"/>
  <vehicle id="218" type="type1" route="wholeHighway" depart="16845.0" departPos="95.0" departSpeed="32.44548591949689" departLane="0"/>
  <vehicle id="219" type="type1" route="wholeHighway" depart="16860.0" departPos="95.0" departSpeed="32.63102890444589" departLane="0"/>
  <vehicle id="220" type="type1" route="wholeHighway" depart="16872.0" departPos="95.0" departSpeed="33.530555058860564" departLane="0"/>
  <vehicle id="221" type="type1" route="wholeHighway" depart="16884.0" departPos="95.0" departSpeed="33.796114594345234" departLane="0"/>
  <vehicle id="222" type="type1" route="wholeHighway" depart="16896.0" departPos="95.0" departSpeed="32.30885345563729" departLane="0"/>
  <vehicle id="223" type="type1" route="wholeHighway" depart="16908.0" departPos="95.0" departSpeed="31.86217412637844" departLane="0"/>
  <vehicle id="224" type="type1" route="wholeHighway" depart="16920.0" departPos="95.0" departSpeed="33.12103051202894" departLane="0"/>
  <vehicle id="225" type="type1" route="wholeHighway" depart="16950.0" departPos="95.0" departSpeed="36.0" departLane="0"/>